Version 4
SHEET 1 1056 680
WIRE 736 -32 656 -32
WIRE 656 0 656 -32
WIRE 656 96 656 80
WIRE 736 96 736 -32
WIRE 112 128 32 128
WIRE 256 128 192 128
WIRE 416 128 336 128
WIRE 528 128 496 128
WIRE 32 192 32 128
WIRE 528 224 528 128
WIRE 560 224 528 224
WIRE 736 224 736 176
WIRE 736 224 624 224
WIRE 560 256 528 256
WIRE 688 256 624 256
WIRE 32 336 32 272
WIRE 528 336 528 256
WIRE 528 336 32 336
WIRE 688 336 688 256
WIRE 688 336 528 336
WIRE 528 352 528 336
WIRE 304 416 304 400
FLAG 528 352 0
FLAG 656 96 0
SYMBOL AutoGenerated\\AC_BJT_5mA 592 240 R0
SYMATTR InstName U1
SYMBOL voltage 32 176 R0
WINDOW 3 -73 134 Left 2
WINDOW 123 0 0 Left 0
WINDOW 39 0 0 Left 0
SYMATTR Value SINE(0 220 50)
SYMATTR InstName V1
SYMBOL res 512 112 R90
WINDOW 0 0 56 VBottom 2
WINDOW 3 32 56 VTop 2
SYMATTR InstName R1
SYMATTR Value 2.2k
SYMBOL res 720 80 R0
SYMATTR InstName R2
SYMATTR Value 4.7k
SYMBOL voltage 656 -16 R0
WINDOW 123 0 0 Left 0
WINDOW 39 0 0 Left 0
SYMATTR InstName V2
SYMATTR Value 1.8v
SYMBOL res 352 112 R90
WINDOW 0 0 56 VBottom 2
WINDOW 3 32 56 VTop 2
SYMATTR InstName R3
SYMATTR Value 2.2k
SYMBOL res 208 112 R90
WINDOW 0 0 56 VBottom 2
WINDOW 3 32 56 VTop 2
SYMATTR InstName R4
SYMATTR Value 2.2k
TEXT -56 440 Left 2 !.tran 100ms
