Version 4
SHEET 1 996 868
WIRE -4000 -128 -4048 -128
WIRE -3888 -128 -3920 -128
WIRE -3616 -64 -3776 -64
WIRE -3488 -64 -3616 -64
WIRE -3360 -64 -3488 -64
WIRE -3184 -64 -3360 -64
WIRE -2800 -64 -2928 -64
WIRE -2656 -64 -2800 -64
WIRE -2496 -64 -2656 -64
WIRE -2080 -64 -2128 -64
WIRE -1872 -64 -2080 -64
WIRE -1696 -64 -1872 -64
WIRE -4048 -32 -4048 -128
WIRE -4048 -32 -4128 -32
WIRE -4000 -32 -4048 -32
WIRE -3888 -32 -3888 -128
WIRE -3888 -32 -3936 -32
WIRE -3776 -32 -3776 -64
WIRE -3616 -32 -3616 -64
WIRE -3360 -32 -3360 -64
WIRE -2800 -32 -2800 -64
WIRE -2128 -16 -2128 -64
WIRE -1872 -16 -1872 -64
WIRE -1696 -16 -1696 -64
WIRE -2656 0 -2656 -64
WIRE -4128 16 -4128 -32
WIRE -3488 48 -3488 -64
WIRE -3888 64 -3888 -32
WIRE -3776 64 -3776 32
WIRE -3776 64 -3888 64
WIRE -3056 64 -3056 32
WIRE -2800 64 -2800 48
WIRE -2800 64 -3056 64
WIRE -2800 80 -2800 64
WIRE -2128 96 -2128 64
WIRE -1872 96 -1872 48
WIRE -1872 96 -2128 96
WIRE -1696 96 -1696 48
WIRE -3360 112 -3360 32
WIRE -2128 112 -2128 96
WIRE -4128 128 -4128 96
WIRE -3616 128 -3616 32
WIRE -3616 128 -4128 128
WIRE -3776 144 -3776 64
WIRE -3616 144 -3616 128
WIRE -4128 176 -4128 128
WIRE -1696 224 -1696 176
WIRE -3776 240 -3776 208
WIRE -3712 240 -3776 240
WIRE -3616 240 -3616 208
WIRE -3616 240 -3712 240
WIRE -3488 240 -3488 112
WIRE -3488 240 -3616 240
WIRE -3360 240 -3360 176
WIRE -3360 240 -3488 240
WIRE -2800 240 -2800 160
WIRE -2800 240 -2928 240
WIRE -2656 240 -2656 80
WIRE -2656 240 -2800 240
WIRE -2928 256 -2928 240
WIRE -3712 272 -3712 240
WIRE -2400 320 -2416 320
WIRE -2336 320 -2400 320
WIRE -2224 320 -2336 320
WIRE -2112 336 -2160 336
WIRE -2064 336 -2112 336
WIRE -1936 336 -2064 336
WIRE -1856 336 -1936 336
WIRE -1696 336 -1696 304
WIRE -1696 336 -1792 336
WIRE -2416 352 -2416 320
WIRE -2336 352 -2336 320
WIRE -2224 352 -2272 352
WIRE -2064 368 -2064 336
WIRE -1936 368 -1936 336
WIRE -1696 368 -1696 336
WIRE -2416 448 -2416 432
WIRE -2336 448 -2336 416
WIRE -2336 448 -2416 448
WIRE -2272 448 -2272 352
WIRE -2272 448 -2336 448
WIRE -2064 448 -2064 432
WIRE -2064 448 -2272 448
WIRE -1936 448 -1936 432
WIRE -1936 448 -2064 448
WIRE -1696 448 -1696 432
WIRE -1696 448 -1936 448
WIRE -2064 480 -2064 448
FLAG -2064 480 0
FLAG -2128 112 0
FLAG -2400 320 out
FLAG -2080 -64 vin
FLAG -2112 336 vout
FLAG -4128 176 0
FLAG -3712 272 0
FLAG -2928 256 0
SYMBOL voltage -2128 -32 R0
WINDOW 123 0 0 Left 0
WINDOW 39 0 0 Left 0
SYMATTR InstName V2
SYMATTR Value SINE(0 220 50)
SYMBOL SpecialFunctions\\varistor -1856 -48 R0
SYMATTR InstName A1
SYMBOL cap -1712 -16 R0
SYMATTR InstName C3
SYMATTR Value 2µ
SYMBOL res -1712 80 R0
SYMATTR InstName R4
SYMATTR Value 68
SYMBOL ind -1712 208 R0
SYMATTR InstName L3
SYMATTR Value 1m
SYMBOL diode -1792 320 R90
WINDOW 0 0 32 VBottom 2
WINDOW 3 32 32 VTop 2
SYMATTR InstName D6
SYMATTR Value 1N4007
SYMBOL diode -1680 432 R180
WINDOW 0 24 64 Left 2
WINDOW 3 24 0 Left 2
SYMATTR InstName D7
SYMATTR Value 1N4007
SYMBOL zener -1920 432 R180
WINDOW 0 24 64 Left 2
WINDOW 3 -63 -40 Left 2
SYMATTR InstName D8
SYMATTR Value BZX84C6V2L
SYMATTR Description Diode
SYMATTR Type diode
SYMBOL cap -2080 368 R0
SYMATTR InstName C4
SYMATTR Value 470µ
SYMBOL AutoGenerated\\78L05 -2192 336 R180
SYMATTR InstName U2
SYMBOL res -2432 336 R0
SYMATTR InstName R5
SYMATTR Value 1k
SYMBOL cap -2352 352 R0
SYMATTR InstName C5
SYMATTR Value 470µ
SYMBOL PowerProducts\\LT317A -3056 -64 R0
SYMATTR InstName U1
SYMBOL diode -3760 32 R180
WINDOW 0 24 64 Left 2
WINDOW 3 24 0 Left 2
SYMATTR InstName D1
SYMATTR Value 1N4007
SYMBOL diode -3600 208 R180
WINDOW 0 24 64 Left 2
WINDOW 3 24 0 Left 2
SYMATTR InstName D2
SYMATTR Value 1N4007
SYMBOL diode -3760 208 R180
WINDOW 0 24 64 Left 2
WINDOW 3 24 0 Left 2
SYMATTR InstName D3
SYMATTR Value 1N4007
SYMBOL diode -3600 32 R180
WINDOW 0 24 64 Left 2
WINDOW 3 24 0 Left 2
SYMATTR InstName D4
SYMATTR Value 1N4007
SYMBOL cap -3936 -48 R90
WINDOW 0 0 32 VBottom 2
WINDOW 3 32 32 VTop 2
SYMATTR InstName C1
SYMATTR Value 1µ
SYMBOL voltage -4128 0 R0
WINDOW 123 0 0 Left 0
WINDOW 39 0 0 Left 0
SYMATTR InstName V1
SYMATTR Value SINE(0 220 50)
SYMBOL res -3904 -144 R90
WINDOW 0 0 56 VBottom 2
WINDOW 3 32 56 VTop 2
SYMATTR InstName R1
SYMATTR Value 1Meg
SYMBOL zener -3344 32 R180
WINDOW 0 24 64 Left 2
WINDOW 3 -47 -28 Left 2
SYMATTR InstName D5
SYMATTR Value BZX84C15L
SYMATTR Description Diode
SYMATTR Type diode
SYMBOL cap -3504 48 R0
SYMATTR InstName C2
SYMATTR Value 22µ
SYMBOL res -2816 64 R0
SYMATTR InstName R3
SYMATTR Value 3k
SYMBOL res -2672 -16 R0
SYMATTR InstName R6
SYMATTR Value 1k
SYMBOL zener -3344 176 R180
WINDOW 0 24 64 Left 2
WINDOW 3 24 0 Left 2
SYMATTR InstName D9
SYMATTR Value BZX84C15L
SYMATTR Description Diode
SYMATTR Type diode
SYMBOL res -2816 -48 R0
SYMATTR InstName R2
SYMATTR Value 1k
TEXT -2432 504 Left 2 !.tran 400m
